42
Properties=species:S:1:pos:R:3:forces:R:3 ala3_vac_capped.pdb=T energy=-250.9988520415256 stress="-inf inf inf inf -inf -inf inf -inf -inf" free_energy=-250.9988520415256 pbc="F F F"
C       13.98871830      27.94906984      48.09319439      -0.03887949      -0.10900336      -0.04327389
O       14.55358573      26.93720465      47.65018710       0.06029548      -0.04833236      -0.05623050
C       12.54053506      27.94524239      48.48622026      -0.00764349       0.00239158       0.02111118
H       12.40450957      27.22209989      49.30012297      -0.06469670      -0.00406874       0.04055446
H       12.18863906      28.92384267      48.82704747       0.00301529       0.05471385      -0.01311445
H       11.92855460      27.61318218      47.63970285       0.01517694       0.01621149      -0.02076162
N       14.66814283      29.10700195      48.32358163      -0.05793218       0.10027775       0.05910225
C       16.02975993      29.28898329      47.81255156      -0.00092953      -0.13634194       0.03635414
C       16.89776398      28.23195484      48.52079276       0.11423258      -0.02192794      -0.12457168
O       17.71140366      27.54747759      47.91027307       0.08985398      -0.04093034      -0.01791877
C       16.50235159      30.71222116      48.00582425       0.00376520      -0.01772622       0.03123582
H       14.11436774      29.94572563      48.44206492      -0.10427159       0.05885919      -0.05847477
H       16.08475039      29.04046456      46.74296019      -0.08867765      -0.01003559      -0.03671599
H       15.91193754      31.39438114      47.38392072      -0.02474179       0.03114252      -0.00538488
H       16.41272607      31.02901181      49.05186024       0.03721346       0.06040789       0.07866246
H       17.54553761      30.80707464      47.68940803       0.05930290      -0.00869476       0.00828174
N       16.61483152      28.06025829      49.84925149      -0.07104879       0.06732784       0.04476784
C       17.47845650      27.23735230      50.67836890       0.02644413      -0.05145800      -0.10965237
C       17.38649959      25.79794831      50.11945426       0.09918712      -0.03880440       0.03926452
O       18.38031340      25.11262628      49.93880692       0.11625092      -0.10233212       0.00559228
C       17.11006642      27.36037124      52.13826022      -0.02412990      -0.01769801      -0.00542480
H       16.08293692      28.79123423      50.30668494      -0.04011863       0.09390378      -0.00771024
H       18.52879348      27.52709333      50.54294967       0.05542931       0.07976382      -0.02540577
H       17.31377985      28.37491426      52.49688480      -0.01535881       0.04575464       0.01342514
H       16.05212716      27.13141761      52.31089194      -0.07748180      -0.03453596       0.05331809
H       17.72528053      26.67776093      52.73159826       0.01785226      -0.05267824       0.02694202
N       16.12243226      25.39530101      49.78725259      -0.07235924       0.06192598       0.01421053
C       15.84544895      24.03384357      49.40232898       0.10418675       0.01849471      -0.00992683
C       16.65143192      23.76571734      48.10619649       0.06070081      -0.15910094       0.03780256
O       17.35042198      22.76517839      48.00853172       0.03831291      -0.05043744      -0.08427523
C       14.36776024      23.79043893      49.23824933      -0.01568379       0.01272959      -0.00715063
H       15.33444233      25.96183179      50.07057577      -0.00788781       0.10815384       0.04080065
H       16.26414609      23.34328865      50.14549655       0.01674859      -0.02302403       0.07826395
H       13.86280576      23.89078758      50.20428650      -0.05140574       0.02354197       0.04441547
H       13.92875925      24.49721415      48.52513929      -0.06193112       0.03475680      -0.05314560
H       14.20675064      22.76572853      48.89018881      -0.02172984      -0.03987039      -0.04801518
N       16.53419515      24.70120890      47.13822065      -0.01631203       0.08489432      -0.00207109
C       17.25247195      24.56432658      45.90540096      -0.00512562      -0.02426785       0.02086623
H       16.00286280      25.55890816      47.28981033      -0.06151432       0.03538993       0.08229442
H       18.29096557      24.90021928      46.01851294       0.00200010       0.02306112       0.00382971
H       17.24983872      23.50643835      45.63005226       0.03297379      -0.02309959      -0.08599759
H       16.76689733      25.15965379      45.12889305      -0.02308266       0.00066561       0.03412640
